<NUMBER OF ZONES> 1
<NUMBER OF NODES> 6
<FIRST THRU NODE> 1
<NUMBER OF LINKS> 6
<END OF METADATA>


	Initnode 	Termnode 	Capacity 	Length 	FreeFlowTime 	B	Power	Speedlimit 	Toll 	Type	CurbLocation    ;
	1	2	2000.0	0.8	1.2	0.15	4	0	0	1	0.2 ;
	2	3	3500.0	2.0	3	0.15	4	0	0	1	0.5 ;
	2	4	2000.0	1.5	3	0.15	4	0	0	1	0.5 ;
	3	5	3500.0	1.6	2.4	0.15	4	0	0	1	0.5 ;
	4	5	2000.0	1.5	3	0.15	4	0	0	1	0.5 ;
	5	6	2000.0	1.0	1.5	0.15	4	0	0	1	0.8 ;
