<NUMBER OF ZONES> 1
<TOTAL OD FLOW> 450.0
<END OF METADATA>


Origin 	1
    6 :      3000.0;
